A CAMERA É MUITO BOA, FILMA COM ALTA RESOLUÇÃO, TIRA FOTOS COM 12 MEGAPIXEL, TEM ZOO DE 16X. ENFIM É UM ÓTIMO PRODUTO.

O que gostei: ESSA EXCELENTE CAMERA TEM GPS, FILMA EM ALTA DEFINIÇÃO, TIRA FOTOS COM EXCELENTE QUALIDADE, RECONHECE ROSTO COM O NOME DA PESSOA, TEM ZOOM DE 16 VEZES, PODE CUSTOMIZAR ATÉ TRES MODOS E DEIXAR NA MEMÓRIA, TEM A FUNÇÃO AI QUE FAZ FOTOS COM MACRO E TELEMACRO, TEM SAIDA HDMI ... TEM ALGUNS VIDEOS NO WWW.YOUTUBE.COM/ELIABBMELLO

O que não gostei: A BATERIA PODERIA DURAR MAIS.  O PREÇO AINDA ESTÁ UM POUCO CARO.